
  Mrv1551103232207422D          

 62 65  0  0  0  0            999 V2000
   -2.1436  -11.9942    0.0000 O   0  0  0  0  0  0  0  0  0  0  0  0
   -1.4292  -12.4067    0.0000 N   0  0  0  0  0  0  0  0  0  0  0  0
   -0.7147  -11.9942    0.0000 C   0  0  0  0  0  0  0  0  0  0  0  0
   -0.7147  -11.1692    0.0000 O   0  0  0  0  0  0  0  0  0  0  0  0
   -0.0002  -12.4067    0.0000 C   0  0  0  0  0  0  0  0  0  0  0  0
    0.7142  -11.9942    0.0000 C   0  0  0  0  0  0  0  0  0  0  0  0
    1.4287  -12.4067    0.0000 C   0  0  0  0  0  0  0  0  0  0  0  0
    2.1432  -11.9942    0.0000 C   0  0  0  0  0  0  0  0  0  0  0  0
    2.8577  -12.4067    0.0000 C   0  0  0  0  0  0  0  0  0  0  0  0
    3.5721  -11.9942    0.0000 C   0  0  0  0  0  0  0  0  0  0  0  0
    4.2866  -12.4067    0.0000 C   0  0  0  0  0  0  0  0  0  0  0  0
    4.2866  -13.2317    0.0000 O   0  0  0  0  0  0  0  0  0  0  0  0
    5.0011  -11.9942    0.0000 N   0  0  0  0  0  0  0  0  0  0  0  0
    7.8590  -11.9942    0.0000 N   0  0  0  0  0  0  0  0  0  0  0  0
    7.1445  -12.4067    0.0000 C   0  0  0  0  0  0  0  0  0  0  0  0
    7.1445  -13.2317    0.0000 C   0  0  0  0  0  0  0  0  0  0  0  0
    6.4300  -13.6442    0.0000 C   0  0  0  0  0  0  0  0  0  0  0  0
    5.7155  -13.2317    0.0000 C   0  0  0  0  0  0  0  0  0  0  0  0
    5.7155  -12.4067    0.0000 C   0  0  0  0  0  0  0  0  0  0  0  0
    6.4300  -11.9942    0.0000 C   0  0  0  0  0  0  0  0  0  0  0  0
    8.5734  -12.4067    0.0000 C   0  0  0  0  0  0  0  0  0  0  0  0
    9.2879  -11.9942    0.0000 C   0  0  0  0  0  0  0  0  0  0  0  0
    9.2879  -11.1692    0.0000 C   0  0  0  0  0  0  0  0  0  0  0  0
   10.0024  -10.7567    0.0000 C   0  0  0  0  0  0  0  0  0  0  0  0
   10.7168  -11.1692    0.0000 C   0  0  0  0  0  0  0  0  0  0  0  0
   10.7168  -11.9942    0.0000 C   0  0  0  0  0  0  0  0  0  0  0  0
   10.0024  -12.4067    0.0000 C   0  0  0  0  0  0  0  0  0  0  0  0
   10.0024  -13.2317    0.0000 N   0  0  0  0  0  0  0  0  0  0  0  0
    9.2879  -13.6442    0.0000 C   0  0  0  0  0  0  0  0  0  0  0  0
    9.2879  -14.4692    0.0000 C   0  0  0  0  0  0  0  0  0  0  0  0
    8.5734  -14.8817    0.0000 C   0  0  0  0  0  0  0  0  0  0  0  0
    7.8590  -14.4692    0.0000 C   0  0  0  0  0  0  0  0  0  0  0  0
    7.8590  -13.6442    0.0000 C   0  0  0  0  0  0  0  0  0  0  0  0
    8.5734  -13.2317    0.0000 C   0  0  0  0  0  0  0  0  0  0  0  0
   -2.1436  -11.1692    0.0000 H   0  0  0  0  0  0  0  0  0  0  0  0
   -1.4292  -13.2317    0.0000 H   0  0  0  0  0  0  0  0  0  0  0  0
   -0.3705  -13.1439    0.0000 H   0  0  0  0  0  0  0  0  0  0  0  0
    0.3700  -13.1439    0.0000 H   0  0  0  0  0  0  0  0  0  0  0  0
    1.0845  -11.2569    0.0000 H   0  0  0  0  0  0  0  0  0  0  0  0
    0.3440  -11.2569    0.0000 H   0  0  0  0  0  0  0  0  0  0  0  0
    1.0585  -13.1439    0.0000 H   0  0  0  0  0  0  0  0  0  0  0  0
    1.7990  -13.1439    0.0000 H   0  0  0  0  0  0  0  0  0  0  0  0
    2.5134  -11.2569    0.0000 H   0  0  0  0  0  0  0  0  0  0  0  0
    1.7729  -11.2569    0.0000 H   0  0  0  0  0  0  0  0  0  0  0  0
    2.4874  -13.1439    0.0000 H   0  0  0  0  0  0  0  0  0  0  0  0
    3.2279  -13.1439    0.0000 H   0  0  0  0  0  0  0  0  0  0  0  0
    3.9424  -11.2569    0.0000 H   0  0  0  0  0  0  0  0  0  0  0  0
    3.2019  -11.2569    0.0000 H   0  0  0  0  0  0  0  0  0  0  0  0
    5.0011  -11.1692    0.0000 H   0  0  0  0  0  0  0  0  0  0  0  0
    7.8590  -11.1692    0.0000 H   0  0  0  0  0  0  0  0  0  0  0  0
    7.8590  -12.8192    0.0000 H   0  0  0  0  0  0  0  0  0  0  0  0
    6.4300  -14.4692    0.0000 H   0  0  0  0  0  0  0  0  0  0  0  0
    5.0011  -13.6442    0.0000 H   0  0  0  0  0  0  0  0  0  0  0  0
    6.4300  -11.1692    0.0000 H   0  0  0  0  0  0  0  0  0  0  0  0
    8.5734  -10.7567    0.0000 H   0  0  0  0  0  0  0  0  0  0  0  0
   10.0024   -9.9317    0.0000 H   0  0  0  0  0  0  0  0  0  0  0  0
   11.4313  -10.7567    0.0000 H   0  0  0  0  0  0  0  0  0  0  0  0
   11.4313  -12.4067    0.0000 H   0  0  0  0  0  0  0  0  0  0  0  0
   10.0024  -14.8817    0.0000 H   0  0  0  0  0  0  0  0  0  0  0  0
    8.5734  -15.7067    0.0000 H   0  0  0  0  0  0  0  0  0  0  0  0
    7.1445  -14.8817    0.0000 H   0  0  0  0  0  0  0  0  0  0  0  0
    8.5734  -14.0567    0.0000 H   0  0  0  0  0  0  0  0  0  0  0  0
  1  2  1  0  0  0  0
  2  3  1  0  0  0  0
  3  4  2  0  0  0  0
  3  5  1  0  0  0  0
  5  6  1  0  0  0  0
  6  7  1  0  0  0  0
  7  8  1  0  0  0  0
  8  9  1  0  0  0  0
  9 10  1  0  0  0  0
 10 11  1  0  0  0  0
 11 12  2  0  0  0  0
 11 13  1  0  0  0  0
 14 15  1  0  0  0  0
 15 16  4  0  0  0  0
 16 17  4  0  0  0  0
 17 18  4  0  0  0  0
 18 19  4  0  0  0  0
 19 20  4  0  0  0  0
 15 20  4  0  0  0  0
 14 21  1  0  0  0  0
 21 22  4  0  0  0  0
 22 23  4  0  0  0  0
 23 24  4  0  0  0  0
 24 25  4  0  0  0  0
 25 26  4  0  0  0  0
 26 27  4  0  0  0  0
 22 27  4  0  0  0  0
 27 28  4  0  0  0  0
 28 29  4  0  0  0  0
 29 30  4  0  0  0  0
 30 31  4  0  0  0  0
 31 32  4  0  0  0  0
 32 33  4  0  0  0  0
 33 34  4  0  0  0  0
 21 34  4  0  0  0  0
 29 34  4  0  0  0  0
 19 13  1  0  0  0  0
  1 35  1  0  0  0  0
  2 36  1  0  0  0  0
  5 37  1  0  0  0  0
  5 38  1  0  0  0  0
  6 39  1  0  0  0  0
  6 40  1  0  0  0  0
  7 41  1  0  0  0  0
  7 42  1  0  0  0  0
  8 43  1  0  0  0  0
  8 44  1  0  0  0  0
  9 45  1  0  0  0  0
  9 46  1  0  0  0  0
 10 47  1  0  0  0  0
 10 48  1  0  0  0  0
 13 49  1  0  0  0  0
 14 50  1  0  0  0  0
 16 51  1  0  0  0  0
 17 52  1  0  0  0  0
 18 53  1  0  0  0  0
 20 54  1  0  0  0  0
 23 55  1  0  0  0  0
 24 56  1  0  0  0  0
 25 57  1  0  0  0  0
 26 58  1  0  0  0  0
 30 59  1  0  0  0  0
 31 60  1  0  0  0  0
 32 61  1  0  0  0  0
 33 62  1  0  0  0  0
M  END
>  <Compound Key>
1

>  <Active>
1

>  <StandardizerResult>
Dearomatize (ID: Dearomatize)
Clear Stereo (ID: ClearStereo)
Wedge Clean (ID: WedgeClean)
Mesomerize (ID: Mesomerize)
Tautomerize (ID: Tautomerize)
Aromatize (ID: Aromatize)
Add Explicit Hydrogens (ID: AddExplicitH)
Neutralize (ID: Neutralize)
Clean 2D (ID: Clean2D)


$$$$

  Mrv1551103232207422D          

 50 53  0  0  0  0            999 V2000
    0.1457    2.9696    0.0000 O   0  0  0  0  0  0  0  0  0  0  0  0
    0.1457    2.1446    0.0000 N   0  0  0  0  0  0  0  0  0  0  0  0
    0.8602    1.7321    0.0000 C   0  0  0  0  0  0  0  0  0  0  0  0
    1.5747    2.1446    0.0000 O   0  0  0  0  0  0  0  0  0  0  0  0
    0.8602    0.9071    0.0000 C   0  0  0  0  0  0  0  0  0  0  0  0
    1.5747    0.4946    0.0000 C   0  0  0  0  0  0  0  0  0  0  0  0
    1.5747   -0.3304    0.0000 C   0  0  0  0  0  0  0  0  0  0  0  0
    2.2891   -0.7429    0.0000 C   0  0  0  0  0  0  0  0  0  0  0  0
    2.2891   -1.5679    0.0000 C   0  0  0  0  0  0  0  0  0  0  0  0
    1.5747   -1.9804    0.0000 C   0  0  0  0  0  0  0  0  0  0  0  0
    1.5747   -2.8054    0.0000 C   0  0  0  0  0  0  0  0  0  0  0  0
    0.8602   -1.5679    0.0000 C   0  0  0  0  0  0  0  0  0  0  0  0
    0.8602   -0.7429    0.0000 C   0  0  0  0  0  0  0  0  0  0  0  0
    2.2891   -3.2179    0.0000 C   0  0  0  0  0  0  0  0  0  0  0  0
    3.0036   -2.8054    0.0000 C   0  0  0  0  0  0  0  0  0  0  0  0
    3.7181   -3.2179    0.0000 C   0  0  0  0  0  0  0  0  0  0  0  0
    3.7181   -4.0429    0.0000 C   0  0  0  0  0  0  0  0  0  0  0  0
    3.0036   -4.4554    0.0000 C   0  0  0  0  0  0  0  0  0  0  0  0
    2.2891   -4.0429    0.0000 C   0  0  0  0  0  0  0  0  0  0  0  0
    3.0036   -5.2804    0.0000 C   0  0  0  0  0  0  0  0  0  0  0  0
    3.6711   -5.7653    0.0000 C   0  0  0  0  0  0  0  0  0  0  0  0
    3.4161   -6.5500    0.0000 N   0  0  0  0  0  0  0  0  0  0  0  0
    2.5911   -6.5500    0.0000 N   0  0  0  0  0  0  0  0  0  0  0  0
    2.3362   -5.7653    0.0000 N   0  0  0  0  0  0  0  0  0  0  0  0
    3.9010   -7.2174    0.0000 C   0  0  0  0  0  0  0  0  0  0  0  0
    4.7215   -7.1312    0.0000 C   0  0  0  0  0  0  0  0  0  0  0  0
    5.2064   -7.7986    0.0000 C   0  0  0  0  0  0  0  0  0  0  0  0
    4.8709   -8.5523    0.0000 C   0  0  0  0  0  0  0  0  0  0  0  0
    4.0504   -8.6385    0.0000 C   0  0  0  0  0  0  0  0  0  0  0  0
    3.5655   -7.9711    0.0000 C   0  0  0  0  0  0  0  0  0  0  0  0
    0.8602    3.3821    0.0000 H   0  0  0  0  0  0  0  0  0  0  0  0
   -0.5687    1.7321    0.0000 H   0  0  0  0  0  0  0  0  0  0  0  0
    0.1457    0.4946    0.0000 H   0  0  0  0  0  0  0  0  0  0  0  0
    2.2891    0.9071    0.0000 H   0  0  0  0  0  0  0  0  0  0  0  0
    3.0036   -0.3304    0.0000 H   0  0  0  0  0  0  0  0  0  0  0  0
    3.0036   -1.9804    0.0000 H   0  0  0  0  0  0  0  0  0  0  0  0
    0.7511   -2.8534    0.0000 H   0  0  0  0  0  0  0  0  0  0  0  0
    1.1213   -3.4947    0.0000 H   0  0  0  0  0  0  0  0  0  0  0  0
    0.1457   -1.9804    0.0000 H   0  0  0  0  0  0  0  0  0  0  0  0
    0.1457   -0.3304    0.0000 H   0  0  0  0  0  0  0  0  0  0  0  0
    2.2891   -2.3929    0.0000 H   0  0  0  0  0  0  0  0  0  0  0  0
    4.4326   -2.8054    0.0000 H   0  0  0  0  0  0  0  0  0  0  0  0
    4.4326   -4.4554    0.0000 H   0  0  0  0  0  0  0  0  0  0  0  0
    1.5747   -4.4554    0.0000 H   0  0  0  0  0  0  0  0  0  0  0  0
    4.4557   -5.5104    0.0000 H   0  0  0  0  0  0  0  0  0  0  0  0
    5.0571   -6.3775    0.0000 H   0  0  0  0  0  0  0  0  0  0  0  0
    6.0269   -7.7124    0.0000 H   0  0  0  0  0  0  0  0  0  0  0  0
    5.3558   -9.2197    0.0000 H   0  0  0  0  0  0  0  0  0  0  0  0
    3.7149   -9.3922    0.0000 H   0  0  0  0  0  0  0  0  0  0  0  0
    2.7450   -8.0573    0.0000 H   0  0  0  0  0  0  0  0  0  0  0  0
  1  2  1  0  0  0  0
  2  3  1  0  0  0  0
  3  4  2  0  0  0  0
  5  3  1  4  0  0  0
  5  6  2  0  0  0  0
  6  7  1  0  0  0  0
  7  8  4  0  0  0  0
  8  9  4  0  0  0  0
  9 10  4  0  0  0  0
 10 11  1  0  0  0  0
 10 12  4  0  0  0  0
 12 13  4  0  0  0  0
  7 13  4  0  0  0  0
 14 15  4  0  0  0  0
 15 16  4  0  0  0  0
 16 17  4  0  0  0  0
 17 18  4  0  0  0  0
 18 19  4  0  0  0  0
 14 19  4  0  0  0  0
 18 20  1  0  0  0  0
 20 21  4  0  0  0  0
 21 22  4  0  0  0  0
 22 23  4  0  0  0  0
 23 24  4  0  0  0  0
 20 24  4  0  0  0  0
 22 25  1  0  0  0  0
 25 26  4  0  0  0  0
 26 27  4  0  0  0  0
 27 28  4  0  0  0  0
 28 29  4  0  0  0  0
 29 30  4  0  0  0  0
 25 30  4  0  0  0  0
 14 11  1  0  0  0  0
  1 31  1  0  0  0  0
  2 32  1  0  0  0  0
  5 33  1  0  0  0  0
  6 34  1  0  0  0  0
  8 35  1  0  0  0  0
  9 36  1  0  0  0  0
 11 37  1  0  0  0  0
 11 38  1  0  0  0  0
 12 39  1  0  0  0  0
 13 40  1  0  0  0  0
 15 41  1  0  0  0  0
 16 42  1  0  0  0  0
 17 43  1  0  0  0  0
 19 44  1  0  0  0  0
 21 45  1  0  0  0  0
 26 46  1  0  0  0  0
 27 47  1  0  0  0  0
 28 48  1  0  0  0  0
 29 49  1  0  0  0  0
 30 50  1  0  0  0  0
M  END
>  <Compound Key>
2

>  <Active>
1

>  <StandardizerResult>
Dearomatize (ID: Dearomatize)
Clear Stereo (ID: ClearStereo)
Wedge Clean (ID: WedgeClean)
Mesomerize (ID: Mesomerize)
Tautomerize (ID: Tautomerize)
Aromatize (ID: Aromatize)
Add Explicit Hydrogens (ID: AddExplicitH)
Neutralize (ID: Neutralize)
Clean 2D (ID: Clean2D)


$$$$

  Mrv1551103232207422D          

 57 61  0  0  0  0            999 V2000
    0.7666   -4.7512    0.0000 O   0  0  0  0  0  0  0  0  0  0  0  0
    1.4811   -4.3387    0.0000 N   0  0  0  0  0  0  0  0  0  0  0  0
    1.4811   -3.5137    0.0000 C   0  0  0  0  0  0  0  0  0  0  0  0
    0.7666   -3.1012    0.0000 O   0  0  0  0  0  0  0  0  0  0  0  0
    2.1955   -3.1012    0.0000 C   0  0  0  0  0  0  0  0  0  0  0  0
    2.1955   -2.2762    0.0000 C   0  0  0  0  0  0  0  0  0  0  0  0
    2.9100   -1.8637    0.0000 C   0  0  0  0  0  0  0  0  0  0  0  0
    2.9100   -1.0387    0.0000 C   0  0  0  0  0  0  0  0  0  0  0  0
    3.6245   -0.6262    0.0000 C   0  0  0  0  0  0  0  0  0  0  0  0
    4.3389   -1.0387    0.0000 C   0  0  0  0  0  0  0  0  0  0  0  0
    5.0534   -0.6262    0.0000 C   0  0  0  0  0  0  0  0  0  0  0  0
    4.3389   -1.8637    0.0000 C   0  0  0  0  0  0  0  0  0  0  0  0
    3.6245   -2.2762    0.0000 C   0  0  0  0  0  0  0  0  0  0  0  0
    5.7679   -1.0387    0.0000 C   0  0  0  0  0  0  0  0  0  0  0  0
    6.4824   -0.6262    0.0000 C   0  0  0  0  0  0  0  0  0  0  0  0
    7.1968   -1.0387    0.0000 C   0  0  0  0  0  0  0  0  0  0  0  0
    7.1968   -1.8637    0.0000 C   0  0  0  0  0  0  0  0  0  0  0  0
    7.9113   -2.2762    0.0000 N   0  0  0  0  0  0  0  0  0  0  0  0
    7.9113   -3.1012    0.0000 C   0  0  0  0  0  0  0  0  0  0  0  0
    8.6258   -3.5137    0.0000 C   0  0  0  0  0  0  0  0  0  0  0  0
    9.3402   -3.1012    0.0000 C   0  0  0  0  0  0  0  0  0  0  0  0
   10.0547   -3.5137    0.0000 C   0  0  0  0  0  0  0  0  0  0  0  0
   10.0547   -4.3387    0.0000 C   0  0  0  0  0  0  0  0  0  0  0  0
    9.3402   -4.7512    0.0000 C   0  0  0  0  0  0  0  0  0  0  0  0
    8.6258   -4.3387    0.0000 C   0  0  0  0  0  0  0  0  0  0  0  0
    7.9113   -4.7512    0.0000 N   0  0  0  0  0  0  0  0  0  0  0  0
    7.1968   -4.3387    0.0000 C   0  0  0  0  0  0  0  0  0  0  0  0
    6.4824   -4.7512    0.0000 C   0  0  0  0  0  0  0  0  0  0  0  0
    5.7679   -4.3387    0.0000 C   0  0  0  0  0  0  0  0  0  0  0  0
    5.7679   -3.5137    0.0000 C   0  0  0  0  0  0  0  0  0  0  0  0
    6.4824   -3.1012    0.0000 C   0  0  0  0  0  0  0  0  0  0  0  0
    7.1968   -3.5137    0.0000 C   0  0  0  0  0  0  0  0  0  0  0  0
    6.4824   -2.2762    0.0000 C   0  0  0  0  0  0  0  0  0  0  0  0
    5.7679   -1.8637    0.0000 C   0  0  0  0  0  0  0  0  0  0  0  0
    0.0521   -4.3387    0.0000 H   0  0  0  0  0  0  0  0  0  0  0  0
    2.1955   -4.7512    0.0000 H   0  0  0  0  0  0  0  0  0  0  0  0
    2.9100   -3.5137    0.0000 H   0  0  0  0  0  0  0  0  0  0  0  0
    1.4811   -1.8637    0.0000 H   0  0  0  0  0  0  0  0  0  0  0  0
    2.1955   -0.6262    0.0000 H   0  0  0  0  0  0  0  0  0  0  0  0
    3.6245    0.1988    0.0000 H   0  0  0  0  0  0  0  0  0  0  0  0
    5.4237    0.1111    0.0000 H   0  0  0  0  0  0  0  0  0  0  0  0
    4.6832    0.1111    0.0000 H   0  0  0  0  0  0  0  0  0  0  0  0
    5.0534   -2.2762    0.0000 H   0  0  0  0  0  0  0  0  0  0  0  0
    3.6245   -3.1012    0.0000 H   0  0  0  0  0  0  0  0  0  0  0  0
    6.4824    0.1988    0.0000 H   0  0  0  0  0  0  0  0  0  0  0  0
    7.9113   -0.6262    0.0000 H   0  0  0  0  0  0  0  0  0  0  0  0
    8.6258   -1.8637    0.0000 H   0  0  0  0  0  0  0  0  0  0  0  0
    9.3402   -2.2762    0.0000 H   0  0  0  0  0  0  0  0  0  0  0  0
   10.7692   -3.1012    0.0000 H   0  0  0  0  0  0  0  0  0  0  0  0
   10.7692   -4.7512    0.0000 H   0  0  0  0  0  0  0  0  0  0  0  0
    9.3402   -5.5762    0.0000 H   0  0  0  0  0  0  0  0  0  0  0  0
    6.4824   -5.5762    0.0000 H   0  0  0  0  0  0  0  0  0  0  0  0
    5.0534   -4.7512    0.0000 H   0  0  0  0  0  0  0  0  0  0  0  0
    5.0534   -3.1012    0.0000 H   0  0  0  0  0  0  0  0  0  0  0  0
    7.1968   -2.6887    0.0000 H   0  0  0  0  0  0  0  0  0  0  0  0
    5.7679   -2.6887    0.0000 H   0  0  0  0  0  0  0  0  0  0  0  0
    5.0534   -1.4512    0.0000 H   0  0  0  0  0  0  0  0  0  0  0  0
  1  2  1  0  0  0  0
  2  3  1  0  0  0  0
  3  4  2  0  0  0  0
  5  3  1  4  0  0  0
  5  6  2  0  0  0  0
  6  7  1  0  0  0  0
  7  8  4  0  0  0  0
  8  9  4  0  0  0  0
  9 10  4  0  0  0  0
 10 11  1  0  0  0  0
 10 12  4  0  0  0  0
 12 13  4  0  0  0  0
  7 13  4  0  0  0  0
 14 15  4  0  0  0  0
 15 16  4  0  0  0  0
 16 17  4  0  0  0  0
 17 18  1  0  0  0  0
 18 19  1  0  0  0  0
 19 20  4  0  0  0  0
 20 21  4  0  0  0  0
 21 22  4  0  0  0  0
 22 23  4  0  0  0  0
 23 24  4  0  0  0  0
 24 25  4  0  0  0  0
 20 25  4  0  0  0  0
 25 26  4  0  0  0  0
 26 27  4  0  0  0  0
 27 28  4  0  0  0  0
 28 29  4  0  0  0  0
 29 30  4  0  0  0  0
 30 31  4  0  0  0  0
 31 32  4  0  0  0  0
 19 32  4  0  0  0  0
 27 32  4  0  0  0  0
 17 33  4  0  0  0  0
 33 34  4  0  0  0  0
 14 34  4  0  0  0  0
 14 11  1  0  0  0  0
  1 35  1  0  0  0  0
  2 36  1  0  0  0  0
  5 37  1  0  0  0  0
  6 38  1  0  0  0  0
  8 39  1  0  0  0  0
  9 40  1  0  0  0  0
 11 41  1  0  0  0  0
 11 42  1  0  0  0  0
 12 43  1  0  0  0  0
 13 44  1  0  0  0  0
 15 45  1  0  0  0  0
 16 46  1  0  0  0  0
 18 47  1  0  0  0  0
 21 48  1  0  0  0  0
 22 49  1  0  0  0  0
 23 50  1  0  0  0  0
 24 51  1  0  0  0  0
 28 52  1  0  0  0  0
 29 53  1  0  0  0  0
 30 54  1  0  0  0  0
 31 55  1  0  0  0  0
 33 56  1  0  0  0  0
 34 57  1  0  0  0  0
M  END
>  <Compound Key>
3

>  <Active>
1

>  <StandardizerResult>
Dearomatize (ID: Dearomatize)
Clear Stereo (ID: ClearStereo)
Wedge Clean (ID: WedgeClean)
Mesomerize (ID: Mesomerize)
Tautomerize (ID: Tautomerize)
Aromatize (ID: Aromatize)
Add Explicit Hydrogens (ID: AddExplicitH)
Neutralize (ID: Neutralize)
Clean 2D (ID: Clean2D)


$$$$
